VDD VDD 0 DC 5
VA0 A0 0 pulse(0 5 20ms 1ns 1ns 20ms 40ms)
VA1 A1 0 pulse(0 5 20ms 1ns 1ns 20ms 40ms)
VA2 A2 0 pulse(0 5 20ms 1ns 1ns 20ms 40ms)
VA3 A3 0 pulse(0 5 20ms 1ns 1ns 20ms 40ms)
VA4 A4 0 pulse(0 5 20ms 1ns 1ns 20ms 40ms)
VA5 A5 0 pulse(0 5 20ms 1ns 1ns 20ms 40ms)
VA6 A6 0 pulse(0 5 20ms 1ns 1ns 20ms 40ms)
VA7 A7 0 pulse(0 5 20ms 1ns 1ns 20ms 40ms)
VA8 A8 0 pulse(0 5 20ms 1ns 1ns 20ms 40ms)
VA9 A9 0 pulse(0 5 20ms 1ns 1ns 20ms 40ms)
VA10 A10 0 pulse(0 5 20ms 1ns 1ns 20ms 40ms)
VA11 A11 0 pulse(0 5 20ms 1ns 1ns 20ms 40ms)
VA12 A12 0 pulse(0 5 20ms 1ns 1ns 20ms 40ms)
VA13 A13 0 pulse(0 5 20ms 1ns 1ns 20ms 40ms)
VA14 A14 0 pulse(0 5 20ms 1ns 1ns 20ms 40ms)
VA15 A15 0 pulse(0 5 20ms 1ns 1ns 20ms 40ms)
VB0 B0 0 pulse(0 5 40ms 1ns 1ns 40ms 80ms)
VB1 B1 0 pulse(0 5 40ms 1ns 1ns 40ms 80ms)
VB2 B2 0 pulse(0 5 40ms 1ns 1ns 40ms 80ms)
VB3 B3 0 pulse(0 5 40ms 1ns 1ns 40ms 80ms)
VB4 B4 0 pulse(0 5 40ms 1ns 1ns 40ms 80ms)
VB5 B5 0 pulse(0 5 40ms 1ns 1ns 40ms 80ms)
VB6 B6 0 pulse(0 5 40ms 1ns 1ns 40ms 80ms)
VB7 B7 0 pulse(0 5 40ms 1ns 1ns 40ms 80ms)
VB8 B8 0 pulse(0 5 40ms 1ns 1ns 40ms 80ms)
VB9 B9 0 pulse(0 5 40ms 1ns 1ns 40ms 80ms)
VB10 B10 0 pulse(0 5 40ms 1ns 1ns 40ms 80ms)
VB11 B11 0 pulse(0 5 40ms 1ns 1ns 40ms 80ms)
VB12 B12 0 pulse(0 5 40ms 1ns 1ns 40ms 80ms)
VB13 B13 0 pulse(0 5 40ms 1ns 1ns 40ms 80ms)
VB14 B14 0 pulse(0 5 40ms 1ns 1ns 40ms 80ms)
VB15 B15 0 pulse(0 5 40ms 1ns 1ns 40ms 80ms)
.tran 80ms